
*INCLUDE, INPUT=TC2_T3D2_TRUSS.msh
*INCLUDE, INPUT=FIXED.nam
*INCLUDE, INPUT=LOAD.nam

*MATERIAL, Name=STEEL
*ELASTIC
	28E6, 0.3
*SOLID SECTION, MATERIAL=STEEL, ELSET=Eall
	1.,
*STEP
*STATIC
*BOUNDARY
	NFIXED,1,3,0
	NLOAD,2,3,0
*CLOAD
	NLOAD,1,100
*NODE FILE
U
*END STEP
