
*INCLUDE, INPUT=TC11_C3D8_BRICK.msh
*INCLUDE, INPUT=FIXED_BC.nam
*INCLUDE, INPUT=LOAD.nam


*MATERIAL, Name=STEEL
*ELASTIC
	28E6, 0.3
*SOLID SECTION, ELSET=Eall, MATERIAL=STEEL
*STEP
*STATIC
*BOUNDARY
	NFIXED_BC,1,3,0
*CLOAD
	NLOAD,2,100
*NODE FILE
U
*END STEP
